npcc_coi2_vsg2_out.txt
ANDES 1.3.3.post91.dev0+gd34216e
Copyright (C) 2015-2021 Hantao Cui

ANDES comes with ABSOLUTELY NO WARRANTY
Case file: /home/jwang175/andes/icebar/COI/npcc_coi2_vsg2.xlsx
Report time: 05/12/2021 09:56:05 PM

Power flow converged in 2 iterations.
Flat-start: No

Statistics:
Buses                    140
Generators                48
Committed Gens            48
Loads                     92
Shunts                     0
Lines                    233
Transformers              27
Areas                      6

EXTENDED SUMMARY:
                      P (pu)        Q (pu)

Generation            280.47        50.284
Load                  276.89        40.665

BUS DATA:
                    Bus Name        Vm(pu)      Va(rad.)

1               MILLSTONE PT        1.0152      0.084523
2                  MONTVILLE        1.0109       0.07079
3                  MONTVILLE        0.9917      0.069924
4                  MONTVILLE        1.0113      0.071558
5                    CARD ST        1.0062      0.041054
6                 SHERMAN RD        1.0059      0.032461
7                     MEDWAY        1.0207      0.056985
8                   MILLBURY        1.0215      0.034856
9               CARPENTER HL        1.0181      0.018717
10                BRAYTON PT        1.0306       0.13992
11                BRAYTON PT        1.0117       0.11706
12               BRIDGEWATER        1.0237       0.10372
13                   PILGRIM        1.0456       0.18628
14                     CANAL        1.0395       0.18127
15                   WALPOLA         1.027      0.060023
16               VERMONT YNK        1.0411      0.078033
17                    SCOBIE        1.0402       0.05717
18                SANDY POND        1.0257      0.026288
19                    POWNAL        1.0413        0.1129
20              MAINE YANKEE        1.0421       0.15965
21              MILLSTONE PT        1.0486       0.20695
22                BRAYTON PT        1.0593       0.22088
23                BRAYTON PT        1.0157       0.20511
24                   PILGRIM        1.0763       0.27535
25                     CANAL          1.06       0.31946
26              MAINE YANKEE        1.0455       0.27424
27               VERMONT YNK        1.0455       0.19318
28                NORTHFIELD        1.0275      0.056254
29                NORTHFIELD        1.0275      0.056254
30                    LUDLOW        1.0162      0.012577
31                MANCHESTER       0.99761     0.0069153
32              SCOVILL ROCK        1.0033      0.032193
33               HADDAM NECK        1.0063      0.044388
34                BLACK POND       0.99603     0.0086955
35               SOUTHINGTEN       0.99525      0.001292
36               CONN YANKEE        1.0486       0.17387
37               NEW SEATHED        1.0442       0.08039
38                    GILBOA        1.0421       0.12174
39                     LEEDS         1.041      0.057138
40               NEW SEATHED        1.0307      0.010053
41                 ROTTERDAM        1.0263     -0.058836
42                    ALBANY          1.04     -0.044796
43                      EDIC        1.0491       0.14561
44                    PORTER        1.0479       0.11466
45                    PORTER        1.0435      0.068888
46                    COLTON        1.0478       0.10795
47                   MOSES W          1.03       0.20384
48                   MOSES E          1.05       0.26202
49               PLATTSBURGH       0.96523     -0.019484
50                      CLAY          1.05       0.23063
51                      CLAY          1.04       0.14884
52                 ROCHESTER        1.0419       0.33882
53                 ROCHESTER          1.03       0.31425
54                 NIAGARA W        1.0408       0.47005
55                 NIAGARA E          1.04       0.45744
56                   HUNTLEY          1.03       0.46948
57                   HUNTLEY          1.03       0.44895
58               GARDENVILLE        1.0101       0.42914
59               GARDENVILLE       0.99669       0.38721
60                   DUNKIRK          1.04        0.5274
61                   DUNKIRK          1.04       0.46647
62                 STOLLE RD        1.0163       0.41823
63                     MEYER        1.0055       0.30799
64                     MEYER        1.0071        0.2539
65                 GESONIDGE          1.04       0.27499
66                 WATERCURE        1.0197       0.36431
67                      WRHL        1.0026       0.29114
68                  HILLSIDE          0.99       0.22241
69                BINGHAMTON        1.0195        0.2502
70                BINGHAMTON       0.99894       0.23677
71                BINGHAMTON             1       0.19398
72                    LAPEER          1.05       0.17659
73              PLEASANT VLY        1.0329      0.028579
74                  MILLWOOD        1.0271     0.0051988
75                    RAMAPO        1.0494      0.022045
76                    RAMAPO        1.0464      0.013918
77                  BUCHANAN        1.0354     0.0095253
78                     CE UG          1.02      1.68e-16
79                   RAV A-3          1.05       0.14262
80                 NORTHPORT        1.0232      0.011012
81                  GOETHALS         1.022     -0.057328
82                      AK-3          1.05       0.13209
83                     KEITH       0.95576       0.40115
84                 KEITH JCT       0.96323       0.40993
85                   LAMBTON       0.99128       0.63614
86                   LAMBTON             1       0.72828
87                   LAMBTON        1.0181       0.58734
88                     SCOTT       0.97335       0.57345
89                     SCOTT       0.95584       0.52798
90                      VIDA       0.95411       0.52538
91                  RICHVIEW          1.04       0.19571
92                    HANMER          1.04       0.32606
93                      ESSA       0.96211       0.13169
94               ORANGEVILLE       0.95947       0.13577
95                  DES JOAC       0.97264        0.2554
96                    HOLDEN        1.0232        0.2653
97                MARTINDELE          1.04       0.24518
98                      STLA          1.04       0.55801
99                       PVR        1.0384       0.54668
100                     PHAS        1.0325       0.45933
101                    SAB 2          1.05       0.42496
102                    BP 76        1.0455       0.44548
103                    PA 27        1.0463       0.44185
104                    BEACH       0.99699       0.22993
105                 BUCHANAN       0.97457       0.42101
106                    NEALE       0.99289       0.25457
107                    NEALE        1.0062       0.27808
108                     S CT        1.0003       0.24287
109                      SLT        1.0003       0.24244
110               BURLINGTON        1.0028       0.21711
111                DETWIERER       0.96194        0.1752
112                  CHATHAM       0.97541       0.51671
113                   LAUZON        0.9523       0.39178
114               MARYSVILLE       0.95972       0.53475
115                 ST CLAIR          1.02       0.58377
116                 WATERMAN       0.99338       0.46862
117                  PONTIAC        1.0051       0.53869
118                    WAYNE       0.99857       0.55482
119                 THETFORD             1        0.5278
120                  ARGENTA          1.02       0.46547
121                    SC415          1.04       0.57408
122                 WATERMAN          1.05       0.56411
123                   MONROE          1.01       0.65646
124               BRANCHBURG        1.0447      0.041609
125                   LINDON         1.022      -0.05962
126                   HUDSON        1.0226     -0.094153
127                 ALBURTIS        1.0485       0.11435
128                 WHITPAIN        1.0393      0.047781
129                   KEENEY         1.023       0.15603
130             PEACH BOTTOM          1.02       0.21287
131                CONASTONE         1.026       0.23409
132                  JUNIATA        1.0398       0.34132
133                CONEMAUGH          1.02       0.59948
134               HOMER CITY          1.03       0.44639
135                 KEYSTONE          1.02       0.61097
136                   ERIE W        1.0006       0.34414
137                   ERIE S          1.04       0.35473
138                 E TOMANO       0.97073       0.23654
139                    KYGER          1.01       0.51274
140                       TE        1.0413       0.52726

LINE DATA:
                   Line Name Fr. Bus (idx)  To Bus (idx)   P From (pu)   Q From (pu)     P To (pu)     Q To (pu)

Line_1                Line_1             1             2        3.3442       0.68293       -3.3397      -0.70595
Line_2                Line_2             1             4        3.1558       0.61546       -3.1518        -0.644
Line_3                Line_3             2            33        3.3033       0.26112       -3.2958      -0.31508
Line_4                Line_4             4             5        3.0974       0.19152       -3.0889      -0.26898
Line_5                Line_5             5             6       0.39913      -0.20734      -0.39885      -0.16374
Line_6                Line_6             5            31        2.6898       0.47632       -2.6838      -0.52085
Line_7                Line_7             6             7       -2.8011       -1.3663        2.8096        1.2798
Line_8                Line_8             7             8        2.5715      -0.33251        -2.567       0.25405
Line_9                Line_9             7            10       -4.4663      -0.12184         4.497       0.17962
Line_10              Line_10             7            12       -3.6116     -0.058275        3.6216     -0.033878
Line_11              Line_11             7            15      -0.59316       -1.0872       0.59358         1.022
Line_12              Line_12             8             9        2.0693       0.19568       -2.0664      -0.29669
Line_13              Line_13             8            18       0.49767      -0.44973      -0.49726       0.11987
Line_14              Line_14             9            30       0.48638    -0.0033141      -0.48612      -0.21078
Line_15              Line_15            12            13       -6.3616       -1.1161        6.3932        1.3912
Line_16              Line_16            13            14        0.6068       0.53469      -0.60638      -0.72359
Line_17              Line_17            14            15        3.7119       0.16826       -3.6836      -0.10205
Line_18              Line_18            16            17       0.69624      -0.31928       -0.6948      -0.24017
Line_19              Line_19            16            29        2.4477      -0.40214       -2.4083       0.29002
Line_20              Line_20            17            18        2.3206       0.70646       -2.3127      -0.87987
Line_21              Line_21            17            19       -1.2615      -0.29755        1.2679       -0.4769
Line_22              Line_22            17            20       -1.7543      -0.33874        1.7708       -0.5972
Line_23              Line_23            19            20       -3.3279        0.1969        3.3423      -0.31243
Line_24              Line_24            29            30        3.0684       0.43259       -3.0564       -0.5648
Line_25              Line_25            29            37      -0.66008      -0.72261       0.66194    -0.0067099
Line_26              Line_26            30            31       0.32252       0.75558      -0.32144      -0.96092
Line_27              Line_27            31            32       -1.9947      -0.35823         1.998       0.28039
Line_28              Line_28            32            33       -4.7928      -0.76909        4.7975       0.78948
Line_29              Line_29            32            35        2.7948       0.48869       -2.7883      -0.54803
Line_30              Line_30            33            34        3.9483       0.87613       -3.9386      -0.83685
Line_31              Line_31            34            35        1.5986    -0.0031481       -1.5976       -0.0643
Line_32              Line_32            35            73       -0.8341       -1.1577        0.8379        0.8267
Line_33              Line_33            37            38       -2.7146       0.32069        2.7257      -0.47944
Line_34              Line_34            37            39        3.4279      -0.14327       -3.4193      -0.29865
Line_35              Line_35            37            40        2.4144       0.42932       -2.4094      -0.31932
Line_36              Line_36            37            43       -3.7897      -0.60003        3.8068      -0.58716
Line_37              Line_37            38            69       -2.7257       0.47944        2.7584      -0.95027
Line_38              Line_38            39            73        1.7097       0.14933       -1.7044      -0.41022
Line_39              Line_39            39            73        1.7097       0.14933       -1.7044      -0.41022
Line_40              Line_40            40            44       -2.1134      -0.11661        2.1471     -0.092206
Line_41              Line_41            41            42       -1.9213       -1.2114          1.93        1.1795
Line_42              Line_42            41            45       -0.5558      0.084398       0.58028      -0.15295
Line_43              Line_43            43            44        3.0929       0.15868       -3.0929     -0.062823
Line_44              Line_44            43            50       -3.4498       0.21424        3.4773      -0.36045
Line_45              Line_45            43            50       -3.4498       0.21424        3.4773      -0.36045
Line_46              Line_46            44            45        2.4406       0.28243       -2.4406      -0.16975
Line_47              Line_47            44            48       -1.4949       -0.1274        1.5267      -0.51921
Line_48              Line_48            45            46      -0.11054      -0.05899       0.11202      -0.11171
Line_49              Line_49            45            51      -0.40406       0.12286       0.41467      -0.17643
Line_50              Line_50            45            71       -0.1851      0.088827       0.19443      -0.18445
Line_51              Line_51            46            47      -0.59086       0.47636       0.62557      -0.46388
Line_52              Line_52            46            49       0.24884      0.060348      -0.23829     -0.084055
Line_53              Line_53            47            48       -1.9056       -0.5688        1.9056       0.69181
Line_54              Line_54            50            51        4.3098       0.68359       -4.3098      -0.32607
Line_55              Line_55            50            52       -5.2644        0.4491        5.3171       -1.2699
Line_56              Line_56            51            53      -0.66892       0.25806       0.71492      -0.37593
Line_57              Line_57            51            72        -1.336      -0.29871        1.3445     0.0097772
Line_58              Line_58            52            53       0.69042       0.30367      -0.68969      -0.28334
Line_59              Line_59            53            55       -1.3229       0.21796        1.3764      -0.34849
Line_60              Line_60            53            65       0.39765      -0.31893      -0.38961       0.28373
Line_61              Line_61            54            56       0.71513       0.47327        -0.708      -0.54261
Line_62              Line_62            54            62        0.8281       0.22404       -0.8224      -0.31238
Line_63              Line_63            54           102        1.0615      -0.28509       -1.0598       0.24706
Line_64              Line_64            54           103        1.2195      -0.32422       -1.2171       0.29488
Line_65              Line_65            55            57       0.26641       0.20086      -0.26562      -0.21801
Line_66              Line_66            55            59       0.96728       0.37157      -0.95115      -0.33071
Line_67              Line_67            56            58        2.9346       0.97302       -2.9164      -0.95069
Line_68              Line_68            57            59       0.99899       0.31177       -0.9844      -0.27174
Line_69              Line_69            58            60       -3.0386      -0.55915        3.0709       0.59268
Line_70              Line_70            58            62       0.57691      -0.42252      -0.57594       0.40052
Line_71              Line_71            59            61      -0.57634     -0.034866       0.59908      0.020437
Line_72              Line_72            60           140    5.1804e-06      -0.07576    1.3076e-10    2.5389e-10
Line_73              Line_73            62            63        1.3983     -0.088143       -1.3739       0.08689
Line_74              Line_74            63            64        1.1902    -0.0043102       -1.1902      0.068763
Line_75              Line_75            63            67       0.18374      -0.08258      -0.18334     -0.095774
Line_76              Line_76            64            65      -0.38252       -0.2687       0.38961       0.23251
Line_77              Line_77            64            68       0.14269     -0.050065      -0.14069      -0.07488
Line_78              Line_78            66            67        3.2358       0.87335       -3.2358      -0.62382
Line_79              Line_79            66            69        4.3184      -0.16715       -4.2861       0.37785
Line_80              Line_80            66           134       -7.5542       -0.7062        7.5959       0.11401
Line_81              Line_81            67            68        1.3912       0.30664       -1.3912      -0.20772
Line_82              Line_82            67            70       0.87756     -0.075636      -0.87219     0.0028773
Line_83              Line_83            67           138        1.1503       0.48859       -1.1402      -0.49768
Line_84              Line_84            68            71      0.081916      -0.12881     -0.079996      0.062772
Line_85              Line_85            69            71        1.5277       0.57243       -1.5277      -0.47639
Line_86              Line_86            70            71       0.87219    -0.0028773      -0.87219      0.040232
Line_87              Line_87            71            72     -0.084529       -3.7088       0.15552        3.7845
Line_88              Line_88            73            74        1.2854    -0.0031315       -1.2819      -0.32664
Line_89              Line_89            73            74        1.2854    -0.0031315       -1.2819      -0.32664
Line_90              Line_90            74            77       -1.2025       -1.9415        1.2039         1.877
Line_91              Line_91            74            78        1.3732        1.2974       -1.3713       -1.6154
Line_92              Line_92            74            78        1.3732        1.2974       -1.3713       -1.6154
Line_93              Line_93            75           124       -1.2118      -0.42118        1.2128       -1.0776
Line_94              Line_94            76            77        1.2117       0.41012       -1.2039        -1.877
Line_95              Line_95            78            79        -9.971       -1.0938            10        2.5734
Line_96              Line_96            78            80      -0.19948      -0.26882           0.2      -0.25078
Line_97              Line_97            78            81        2.1631     -0.050424       -2.1609       0.17462
Line_98              Line_98            78            82       -4.5897       -0.6161           4.6         1.251
Line_99              Line_99            81           125        2.1609      -0.17462       -2.1604       0.17957
Line_100            Line_100            83           112       -0.6991      0.002394         0.709      0.079843
Line_101            Line_101            83           113       0.43782      0.085275      -0.43702     -0.080875
Line_102            Line_102            84           116      -0.54072      -0.25437        0.5413       0.29458
Line_103            Line_103            85            88        3.0507       0.71737       -3.0347      -0.54397
Line_104            Line_104            85            88        3.0507       0.71737       -3.0347      -0.54397
Line_105            Line_105            85           105        1.9087       0.09266       -1.8713       0.14117
Line_106            Line_106            85           105        1.9087       0.09266       -1.8713       0.14117
Line_107            Line_107            85           112         1.954       0.10438        -1.927      0.031546
Line_108            Line_108            85           112         1.954       0.10438        -1.927      0.031546
Line_109            Line_109            87           115        1.9921       -1.1764       -1.9916        1.1648
Line_110            Line_110            88            89        2.0828       0.82712       -2.0801      -0.71845
Line_111            Line_111            88           105        1.4433      -0.14459       -1.4187        0.2021
Line_112            Line_112            88           105        1.4433      -0.14459       -1.4187        0.2021
Line_113            Line_113            89            90       0.53721       0.19575      -0.53675        -0.194
Line_114            Line_114            89           105       0.26694      -0.10836      -0.25881       0.13892
Line_115            Line_115            89           113       0.27597      -0.06893      -0.26308       0.10537
Line_116            Line_116            90           114      -0.61325        -0.256       0.61442       0.26328
Line_117            Line_117            91            92       -1.5029       0.19281        1.5152     0.0041763
Line_118            Line_118            91            93       0.25376       0.24683      -0.24889      -0.21286
Line_119            Line_119            91            95      -0.26678       0.42746       0.27291      -0.38418
Line_120            Line_120            91            98       -4.2887        1.4248        4.5153       0.18773
Line_121            Line_121            91           110       -1.3954        3.5289         1.418       -3.3732
Line_122            Line_122            92            97        2.8848      0.040504       -2.8786       0.19267
Line_123            Line_123            93            94      -0.11715       0.10728       0.11726      -0.10651
Line_124            Line_124            93            95      -0.88397       0.10558       0.89998      0.004355
Line_125            Line_125            94           111       -1.0673       0.10651        1.0734     -0.064519
Line_126            Line_126            95            96      -0.17289      -0.49018       0.17677       0.51745
Line_127            Line_127            96            97       0.22323      -0.26745      -0.22137       0.27634
Line_128            Line_128            98            99        1.3347        0.1424       -1.3342      -0.12707
Line_129            Line_129            99           100        1.3342       0.12707       -1.3325     -0.010139
Line_130            Line_130           101           104        2.6951        0.7083       -2.6408      -0.16387
Line_131            Line_131           101           105      0.092364       0.51888     -0.087627      -0.48126
Line_132            Line_132           101           107        2.1144       0.55043       -2.0815      -0.22526
Line_133            Line_133           101           108        2.5289       0.64501       -2.4807      -0.16806
Line_134            Line_134           101           109        2.4985       0.64052       -2.4514      -0.16805
Line_135            Line_135           101           110       0.84607       0.11924      -0.81415      0.055313
Line_136            Line_136           104           106       -1.3175       0.37555        1.3209      -0.34156
Line_137            Line_137           104           110        1.9584       -1.1117       -1.9553        1.1433
Line_138            Line_138           105           106        1.3537      -0.23197       -1.3209       0.46156
Line_139            Line_139           105           107        1.2333      -0.31701       -1.2137       0.50531
Line_140            Line_140           105           111        2.8269     -0.018977       -2.7166       0.57792
Line_141            Line_141           105           112       -1.7703       0.21364        1.7978      -0.32819
Line_142            Line_142           105           113      0.032705      0.010125     -0.032233    -0.0089551
Line_143            Line_143           107           110        3.2952     -0.090056       -3.2726        0.2897
Line_144            Line_144           108           110        1.2935      -0.28418       -1.2889       0.31818
Line_145            Line_145           108           111        1.1872       0.58224       -1.1769      -0.48142
Line_146            Line_146           109           110        1.2714      -0.28375        -1.267       0.31666
Line_147            Line_147           109           111          1.18        0.5818       -1.1698      -0.48199
Line_148            Line_148           112           113        1.3473       0.18525       -1.3277     -0.015544
Line_149            Line_149           114           117     -0.030428      -0.11226      0.031402       0.11769
Line_150            Line_150           114           119     -0.023402      -0.14403      0.025427        0.1499
Line_151            Line_151           114           121      -0.56059      -0.90699       0.56836         1.006
Line_152            Line_152           115           116       0.12072      0.025526      -0.11965     -0.011187
Line_153            Line_153           115           117        4.1455         1.064       -4.1279      -0.86329
Line_154            Line_154           115           118       0.16045     -0.027732      -0.15623      0.031684
Line_155            Line_155           115           119        1.4923       0.43553       -1.4846      -0.34447
Line_156            Line_156           115           121      0.029259     -0.070355     -0.029136       0.07202
Line_157            Line_157           115           135     -0.044855    0.00061014      0.044855    0.00061014
Line_158            Line_158           115           139        0.5882       0.10296       -0.5882     -0.060357
Line_159            Line_159           116           117      -0.26343      0.012659       0.26677     0.0058855
Line_160            Line_160           116           118       -1.1233       0.15687        1.1385     -0.059885
Line_161            Line_161           116           120    -0.0070191     -0.035248     0.0073211       0.03617
Line_162            Line_162           116           121      -0.24548     -0.037641       0.25143      0.066243
Line_163            Line_163           116           122      -0.78247      -0.38003         0.785       0.47872
Line_164            Line_164           117           118      -0.77193       0.41216       0.77345      -0.39707
Line_165            Line_165           117           119       0.59905       0.21862      -0.59836      -0.21101
Line_166            Line_166           117           120       0.92158      -0.23134      -0.91559       0.30258
Line_167            Line_167           117           121       -0.4797      -0.31372       0.48458       0.34198
Line_168            Line_168           117           122      -0.43927        -0.316       0.45037       0.34168
Line_169            Line_169           118           120        1.4141      -0.38802       -1.4033       0.52366
Line_170            Line_170           118           121     -0.061402     -0.068022      0.062574      0.072062
Line_171            Line_171           118           122     -0.036861      -0.09428      0.037838      0.099491
Line_172            Line_172           118           123       -5.8716       0.11559          5.92       0.48623
Line_173            Line_173           119           120       0.15187     -0.097751       -0.1484       0.10916
Line_174            Line_174           119           121     -0.094295      -0.04042      0.096017      0.046529
Line_175            Line_175           121           122      0.016174     -0.026319     -0.016064      0.026734
Line_176            Line_176           122           135      -0.06257      0.047832      0.062892     -0.043566
Line_177            Line_177           122           139       0.35542       0.28328      -0.35542      -0.25458
Line_178            Line_178           124           125          1.49       0.34943       -1.4846      -0.19278
Line_179            Line_179           124           126        1.7234       0.39238       -1.7234      -0.15222
Line_180            Line_180           124           127       -7.5753      -0.20823        7.5964     -0.028073
Line_181            Line_181           124           128      -0.55084      0.053991        0.5511      -0.95995
Line_182            Line_182           125           126        0.8779   -0.00096764       -0.8779      0.031297
Line_183            Line_183           125           128       -0.4329     -0.035818       0.43378      0.083404
Line_184            Line_184           126           127      -0.87659     -0.012962       0.87659       0.19905
Line_185            Line_185           126           128      -0.54847     -0.023118       0.54847       0.10211
Line_186            Line_186           126           138      -0.47365       0.15701       0.47365     0.0050232
Line_187            Line_187           127           128       0.54137      0.090636      -0.54137      -0.05394
Line_188            Line_188           127           132       -11.014        1.2384        11.117      -0.47489
Line_189            Line_189           128           129      -0.83178       0.16718       0.83178     -0.075148
Line_190            Line_190           128           130       -9.8602        1.6812        9.9268       -1.3514
Line_191            Line_191           129           130       -6.9318       0.57515        6.9504      -0.80458
Line_192            Line_192           130           131       -5.9102       -1.5295        5.9172        1.0977
Line_193            Line_193           130           132       -7.8671      -0.99309        7.9088       0.69822
Line_194            Line_194           131           133       -9.4647        0.9578        9.6459      -0.32208
Line_195            Line_195           131           135       -5.3814        1.5783        5.5517       0.50993
Line_196            Line_196           131           139        -2.671       0.68623        2.7137      0.073762
Line_197            Line_197           132           133        -9.148        1.1464        9.2466        -0.955
Line_198            Line_198           132           134       -2.5328         0.502        2.5473      -0.23141
Line_199            Line_199           132           135       -9.7081        1.3358        9.8193      -0.85059
Line_200            Line_200           132           138       0.26267       0.16251      -0.25974      -0.12524
Line_201            Line_201           133           135       -1.8926      -0.13306        1.8936      -0.31336
Line_202            Line_202           134           135       -2.7106       0.59145        2.7439        -0.138
Line_203            Line_203           134           136        1.3674     -0.043119       -1.3587      -0.62316
Line_204            Line_204           135           139        1.4836      -0.16783       -1.4457       0.30946
Line_205            Line_205           136           139      -0.82563      0.023869       0.82563        0.1161
Line_206            Line_206           137           138       0.18196      0.045453      -0.17365     -0.022103
Line_207            Line_207             1            21          -6.5       -1.2984           6.5         2.151
Line_208            Line_208             3             2     -0.036012      -0.43636      0.036324       0.44483
Line_209            Line_209             3             4     -0.053988      -0.44364      0.054313       0.45248
Line_210            Line_210            10            11        1.7954        1.3412       -1.7921        -1.276
Line_211            Line_211            10            22       -6.2924       -1.5209          6.32        2.0811
Line_212            Line_212            11            23       -5.0079       0.24599          5.03       0.19612
Line_213            Line_213            13            24            -7       -1.9259             7        2.6153
Line_214            Line_214            14            25       -5.5855      -0.29467           5.6        1.0822
Line_215            Line_215            16            27       -5.3839       0.25142           5.4        0.3704
Line_216            Line_216            20            26       -7.9531       0.63963             8       0.27484
Line_217            Line_217            28            29             0             0             0             0
Line_218            Line_218            33            36         -5.45       -1.3505          5.45        2.1289
Line_219            Line_219            40            41        4.5229       0.43593       -4.5229      -0.12304
Line_220            Line_220            49            48       -1.8417     -0.085945        1.8986       0.64637
Line_221            Line_221            48           100       -1.3309       0.25555        1.3325      0.010139
Line_222            Line_222            54            52        6.0757      -0.17157       -6.0075       0.96619
Line_223            Line_223            54            55        1.0501       0.07067       -1.0501     -0.057377
Line_224            Line_224            56            57       0.15337     0.0015743      -0.15337     0.0015743
Line_225            Line_225            58            59        4.5381        1.5524       -4.5381       -1.3427
Line_226            Line_226            60            61        1.0291       0.03136       -1.0291      0.031361
Line_227            Line_227            75            76        1.2118       0.42118       -1.2117      -0.41012
Line_228            Line_228            84            83       0.54072       0.25437      -0.53872      -0.24767
Line_229            Line_229            85            86           -16      -0.77947            16         2.268
Line_230            Line_230            87            85       -1.9921        1.1764        1.9931       -1.0493
Line_231            Line_231           101           102        -1.059       0.26991        1.0598      -0.24706
Line_232            Line_232           101           103       -1.2163       0.31651        1.2171      -0.29488
Line_233            Line_233           137           136       0.51804        1.7005      -0.51571       -1.6307

OTHER ALGEBRAIC VARIABLES:
                            

p PV 1                   6.5
p PV 2                  6.32
p PV 3                2.7665
p PV 4                2.2635
p PV 5                     7
p PV 6                   5.6
p PV 7                     8
p PV 8                   5.4
p PV 9                  5.54
p PV 10                  3.7
p PV 11                    4
p PV 12                    4
p PV 13                    6
p PV 14                 1.41
p PV 15                 8.33
p PV 16                5.575
p PV 17                5.575
p PV 18                10.95
p PV 19                  4.1
p PV 20                 2.98
p PV 21                  4.1
p PV 22                 1.94
p PV 23                 0.91
p PV 24                 0.66
p PV 25                 1.34
p PV 26                  1.5
p PV 28                   10
p PV 29                  7.2
p PV 30                  4.6
p PV 31                 16.5
p PV 32                  9.3
p PV 33                  4.5
p PV 34                    6
p PV 35                 5.85
p PV 36                   12
p PV 37                  5.5
p PV 38                  5.5
p PV 39                    7
p PV 40                 1.45
p PV 41                 1.55
p PV 42                 6.55
p PV 43                  4.9
p PV 44                   17
p PV 45                  8.8
p PV 46                 23.3
p PV 47                  0.7
p PV 48                 1.15
q PV 1                 2.151
q PV 2                2.0811
q PV 3               0.10787
q PV 4              0.088257
q PV 5                2.6153
q PV 6                1.0822
q PV 7               0.27484
q PV 8                0.3704
q PV 9                2.1789
q PV 10               1.3495
q PV 11             -0.03268
q PV 12               1.0745
q PV 13              0.41178
q PV 14              0.20685
q PV 15               1.7398
q PV 16            -0.006451
q PV 17            -0.006451
q PV 18               1.4866
q PV 19              0.87199
q PV 20             0.035344
q PV 21              0.54828
q PV 22               0.1318
q PV 23              0.51624
q PV 24            -0.001403
q PV 25              -3.7366
q PV 26               3.7942
q PV 28               2.5734
q PV 29            -0.000781
q PV 30                1.251
q PV 31                2.518
q PV 32               10.821
q PV 33               3.2447
q PV 34              0.96902
q PV 35              0.33013
q PV 36               5.0688
q PV 37               2.6954
q PV 38               1.4562
q PV 39              0.57157
q PV 40               1.5785
q PV 41               1.2777
q PV 42              0.58623
q PV 43              -4.6786
q PV 44              -1.4101
q PV 45              0.43093
q PV 46              -1.0028
q PV 47                1.746
q PV 48              0.18438
p Slack 27            4.6604
q Slack 27           0.74004

